project/tests/fixtures/controls/legacy_regression/psse_validation_cases_integrated/psse_integrated_controls_40bus.raw
@!IC, SBASE,REV,XFRRAT,NXFRAT,BASFRQ
0, 100.00, 34, 0, 1, 50.00 / PSS(R)E-34.9
Integrated 40 bus controls validation case
PSS/E Explore fixture for GENQ, shunts, FACTS, ULTC, TWO-DC, PQBRAK, and SWDEV
GENERAL, THRSHZ=0.0001, PQBRAK=0.9700
NEWTON, ITMXN=40, VCTOLV=0.00001, VCTOLQ=0.10000
ADJUST, MXTPSS=25
SOLVER, FNSL, ACTAPS=1, AREAIN=0, PHSHFT=0, DCTAPS=1, SWSHNT=2, FACTS=1, FLATST=0, VARLIM=1, NONDIV=0
0 / END OF SYSTEM-WIDE DATA, BEGIN BUS DATA
@!   I,'NAME        ', BASKV, IDE,AREA,ZONE,OWNER, VM,        VA,    NVHI,   NVLO,   EVHI,   EVLO
1,'SLACK       ', 230.0000,3,   1,   1,   1,1.02000,   0.0000,1.10000,0.90000,1.10000,0.90000
2,'GEN_GRP_A   ', 230.0000,2,   1,   1,   1,1.02000,  -0.8000,1.10000,0.90000,1.10000,0.90000
3,'GEN_GRP_B   ', 230.0000,2,   1,   1,   1,1.02000,  -1.0000,1.10000,0.90000,1.10000,0.90000
4,'GEN_REM     ', 230.0000,2,   1,   1,   1,1.01500,  -1.2000,1.10000,0.90000,1.10000,0.90000
5,'GEN_LOCAL   ', 230.0000,2,   1,   1,   1,1.01000,  -1.4000,1.10000,0.90000,1.10000,0.90000
6,'GEN_LIM     ', 230.0000,2,   1,   1,   1,1.01500,  -1.5000,1.10000,0.90000,1.10000,0.90000
7,'BACKBONE_7  ', 230.0000,1,   1,   1,   1,1.00500,  -1.8000,1.10000,0.90000,1.10000,0.90000
8,'BACKBONE_8  ', 230.0000,1,   1,   1,   1,1.00000,  -2.0000,1.10000,0.90000,1.10000,0.90000
9,'BACKBONE_9  ', 230.0000,1,   1,   1,   1,0.99500,  -2.3000,1.10000,0.90000,1.10000,0.90000
10,'REG_GENQ_1  ', 230.0000,1,   1,   1,   1,0.98500,  -2.8000,1.10000,0.90000,1.10000,0.90000
11,'LOAD_11     ', 230.0000,1,   1,   1,   1,0.98500,  -3.0000,1.10000,0.90000,1.10000,0.90000
12,'REG_GENQ_2  ', 230.0000,1,   1,   1,   1,0.98000,  -3.2000,1.10000,0.90000,1.10000,0.90000
13,'REG_FACTS   ', 230.0000,1,   1,   1,   1,0.98500,  -3.4000,1.10000,0.90000,1.10000,0.90000
14,'SHUNT_A     ', 230.0000,1,   1,   1,   1,0.98000,  -3.6000,1.10000,0.90000,1.10000,0.90000
15,'SHUNT_B     ', 230.0000,1,   1,   1,   1,0.98000,  -3.7000,1.10000,0.90000,1.10000,0.90000
16,'LOAD_16     ', 230.0000,1,   1,   1,   1,0.97500,  -3.9000,1.10000,0.90000,1.10000,0.90000
17,'FACTS_A     ', 230.0000,1,   1,   1,   1,0.98500,  -4.0000,1.10000,0.90000,1.10000,0.90000
18,'REG_LIM     ', 230.0000,1,   1,   1,   1,0.97500,  -4.1000,1.10000,0.90000,1.10000,0.90000
19,'SWD_FROM    ', 230.0000,1,   1,   1,   1,0.98000,  -4.2000,1.10000,0.90000,1.10000,0.90000
20,'SWD_TIE     ', 230.0000,1,   1,   1,   1,0.98000,  -4.4000,1.10000,0.90000,1.10000,0.90000
21,'XF_A_HV     ', 230.0000,1,   1,   1,   1,0.99000,  -2.2000,1.10000,0.90000,1.10000,0.90000
22,'XF_A_LV     ', 115.0000,1,   1,   1,   1,0.97000,  -3.2000,1.10000,0.90000,1.10000,0.90000
23,'XF_A_LOAD   ', 115.0000,1,   1,   1,   1,0.96000,  -3.7000,1.10000,0.90000,1.10000,0.90000
24,'XF_B_HV     ', 230.0000,1,   1,   1,   1,0.99000,  -3.0000,1.10000,0.90000,1.10000,0.90000
25,'XF_B_LV     ', 115.0000,1,   1,   1,   1,0.97000,  -4.1000,1.10000,0.90000,1.10000,0.90000
26,'XF_B_LOAD   ', 115.0000,1,   1,   1,   1,0.96000,  -4.6000,1.10000,0.90000,1.10000,0.90000
27,'PQBRAK_A    ', 230.0000,1,   1,   1,   1,0.96500,  -4.4000,1.10000,0.90000,1.10000,0.90000
28,'PQBRAK_B    ', 230.0000,1,   1,   1,   1,0.96500,  -4.5000,1.10000,0.90000,1.10000,0.90000
29,'SHUNT_C     ', 230.0000,1,   1,   1,   1,0.97500,  -4.0000,1.10000,0.90000,1.10000,0.90000
30,'FACTS_B     ', 230.0000,1,   1,   1,   1,0.98500,  -4.2000,1.10000,0.90000,1.10000,0.90000
31,'DC_RECT     ', 230.0000,1,   1,   1,   1,1.00000,  -3.2000,1.10000,0.90000,1.10000,0.90000
32,'DC_INV      ', 230.0000,1,   1,   1,   1,0.99500,  -4.0000,1.10000,0.90000,1.10000,0.90000
33,'DC_LOAD     ', 230.0000,1,   1,   1,   1,0.99000,  -4.3000,1.10000,0.90000,1.10000,0.90000
34,'SWD_A       ', 230.0000,1,   1,   1,   1,0.98000,  -4.6000,1.10000,0.90000,1.10000,0.90000
35,'SWD_LOAD    ', 230.0000,1,   1,   1,   1,0.97500,  -4.8000,1.10000,0.90000,1.10000,0.90000
36,'REMOTE_A    ', 230.0000,1,   1,   1,   1,0.98000,  -4.9000,1.10000,0.90000,1.10000,0.90000
37,'REMOTE_B    ', 230.0000,1,   1,   1,   1,0.97500,  -5.1000,1.10000,0.90000,1.10000,0.90000
38,'LOAD_END_A  ', 230.0000,1,   1,   1,   1,0.97000,  -5.4000,1.10000,0.90000,1.10000,0.90000
39,'LOAD_END_B  ', 230.0000,1,   1,   1,   1,0.97000,  -5.5000,1.10000,0.90000,1.10000,0.90000
40,'GEN_END     ', 230.0000,2,   1,   1,   1,1.02000,  -5.0000,1.10000,0.90000,1.10000,0.90000
0 / END OF BUS DATA, BEGIN LOAD DATA
@!   I,'ID',STAT,AREA,ZONE,      PL,        QL,        IP,        IQ,        YP,        YQ, OWNER,SCALE,INTRPT,  DGENP,     DGENQ, DGENF
10,'1 ',  1,   1,   1,    25.000,    12.500,     0.000,     0.000,     0.000,     0.000,   1,1,0,     0.000,     0.000, 0
11,'1 ',  1,   1,   1,    20.000,    10.000,     0.000,     0.000,     0.000,     0.000,   1,1,0,     0.000,     0.000, 0
12,'1 ',  1,   1,   1,    32.500,    19.000,     0.000,     0.000,     0.000,     0.000,   1,1,0,     0.000,     0.000, 0
13,'1 ',  1,   1,   1,    22.500,    11.000,     0.000,     0.000,     0.000,     0.000,   1,1,0,     0.000,     0.000, 0
16,'1 ',  1,   1,   1,    17.500,     7.500,     0.000,     0.000,     0.000,     0.000,   1,1,0,     0.000,     0.000, 0
18,'1 ',  1,   1,   1,    27.500,    17.000,     0.000,     0.000,     0.000,     0.000,   1,1,0,     0.000,     0.000, 0
20,'1 ',  1,   1,   1,    15.000,     7.500,     0.000,     0.000,     0.000,     0.000,   1,1,0,     0.000,     0.000, 0
23,'1 ',  1,   1,   1,    35.000,    17.500,     0.000,     0.000,     0.000,     0.000,   1,1,0,     0.000,     0.000, 0
26,'1 ',  1,   1,   1,    30.000,    15.000,     0.000,     0.000,     0.000,     0.000,   1,1,0,     0.000,     0.000, 0
27,'1 ',  1,   1,   1,    40.000,    25.000,     0.000,     0.000,     0.000,     0.000,   1,1,0,     0.000,     0.000, 0
28,'1 ',  1,   1,   1,    35.000,    22.500,     0.000,     0.000,     0.000,     0.000,   1,1,0,     0.000,     0.000, 0
33,'1 ',  1,   1,   1,    25.000,    12.500,     0.000,     0.000,     0.000,     0.000,   1,1,0,     0.000,     0.000, 0
35,'1 ',  1,   1,   1,    12.500,     6.000,     0.000,     0.000,     0.000,     0.000,   1,1,0,     0.000,     0.000, 0
38,'1 ',  1,   1,   1,    22.500,    10.000,     0.000,     0.000,     0.000,     0.000,   1,1,0,     0.000,     0.000, 0
39,'1 ',  1,   1,   1,    20.000,     9.000,     0.000,     0.000,     0.000,     0.000,   1,1,0,     0.000,     0.000, 0
0 / END OF LOAD DATA, BEGIN FIXED SHUNT DATA
@!   I,'ID',STATUS,  GL,        BL
0 / END OF FIXED SHUNT DATA, BEGIN GENERATOR DATA
@!   I,'ID',      PG,        QG,        QT,        QB,     VS,    IREG,     MBASE,     ZR,         ZX,         RT,         XT,     GTAP,STAT, RMPCT,      PT,        PB,    O1,    F1
1,'1 ',    80.000,    20.000,   600.000,  -600.000,1.02000,     1,   100.000, 0.00000E+0, 1.00000E+0, 0.00000E+0, 0.00000E+0,1.00000,1,  100.0,   700.000,  -100.000,   1,1.0000
2,'1 ',    70.000,    45.000,   180.000,   -60.000,1.02000,    10,   100.000, 0.00000E+0, 1.00000E+0, 0.00000E+0, 0.00000E+0,1.00000,1,   60.0,   180.000,     0.000,   1,1.0000
3,'1 ',    60.000,    30.000,    90.000,   -40.000,1.02000,    10,   100.000, 0.00000E+0, 1.00000E+0, 0.00000E+0, 0.00000E+0,1.00000,1,   40.0,   150.000,     0.000,   1,1.0000
4,'1 ',    50.000,    20.000,   100.000,   -40.000,1.01500,    12,   100.000, 0.00000E+0, 1.00000E+0, 0.00000E+0, 0.00000E+0,1.00000,1,  100.0,   130.000,     0.000,   1,1.0000
5,'1 ',    40.000,    10.000,    50.000,   -30.000,1.01000,     5,   100.000, 0.00000E+0, 1.00000E+0, 0.00000E+0, 0.00000E+0,1.00000,1,  100.0,   120.000,     0.000,   1,1.0000
6,'1 ',    25.000,    10.000,    25.000,   -15.000,1.01500,    18,   100.000, 0.00000E+0, 1.00000E+0, 0.00000E+0, 0.00000E+0,1.00000,1,  100.0,    80.000,     0.000,   1,1.0000
40,'1 ',   50.000,    15.000,    90.000,   -40.000,1.02000,    40,   100.000, 0.00000E+0, 1.00000E+0, 0.00000E+0, 0.00000E+0,1.00000,1,  100.0,   120.000,     0.000,   1,1.0000
0 / END OF GENERATOR DATA, BEGIN BRANCH DATA
@!   I,     J,'CKT',     R,          X,         B,                    'N A M E'                 ,   RATE1,   RATE2,   RATE3,   RATE4,   RATE5,   RATE6,   RATE7,   RATE8,   RATE9,  RATE10,  RATE11,  RATE12,    GI,       BI,       GJ,       BJ,STAT,MET,  LEN,  O1,  F1
1,2,'1 ', 5.00000E-03, 5.00000E-02,   0.00000,'LINE01_02                               ',  350.00,  350.00,  350.00,    0.00,    0.00,    0.00,    0.00,    0.00,    0.00,    0.00,    0.00,    0.00,  0.00000,  0.00000,  0.00000,  0.00000,1,1,  10.00,   1,1.0000
1,3,'1 ', 5.00000E-03, 5.00000E-02,   0.00000,'LINE01_03                               ',  350.00,  350.00,  350.00,    0.00,    0.00,    0.00,    0.00,    0.00,    0.00,    0.00,    0.00,    0.00,  0.00000,  0.00000,  0.00000,  0.00000,1,1,  10.00,   1,1.0000
2,7,'1 ', 6.00000E-03, 5.00000E-02,   0.00000,'LINE02_07                               ',  300.00,  300.00,  300.00,    0.00,    0.00,    0.00,    0.00,    0.00,    0.00,    0.00,    0.00,    0.00,  0.00000,  0.00000,  0.00000,  0.00000,1,1,  10.00,   1,1.0000
3,7,'1 ', 6.00000E-03, 5.00000E-02,   0.00000,'LINE03_07                               ',  300.00,  300.00,  300.00,    0.00,    0.00,    0.00,    0.00,    0.00,    0.00,    0.00,    0.00,    0.00,  0.00000,  0.00000,  0.00000,  0.00000,1,1,  10.00,   1,1.0000
7,8,'1 ', 5.00000E-03, 4.00000E-02,   0.00000,'LINE07_08                               ',  300.00,  300.00,  300.00,    0.00,    0.00,    0.00,    0.00,    0.00,    0.00,    0.00,    0.00,    0.00,  0.00000,  0.00000,  0.00000,  0.00000,1,1,  10.00,   1,1.0000
8,9,'1 ', 5.00000E-03, 4.00000E-02,   0.00000,'LINE08_09                               ',  300.00,  300.00,  300.00,    0.00,    0.00,    0.00,    0.00,    0.00,    0.00,    0.00,    0.00,    0.00,  0.00000,  0.00000,  0.00000,  0.00000,1,1,  10.00,   1,1.0000
9,10,'1 ',7.00000E-03, 6.00000E-02,   0.00000,'LINE09_10                               ',  250.00,  250.00,  250.00,    0.00,    0.00,    0.00,    0.00,    0.00,    0.00,    0.00,    0.00,    0.00,  0.00000,  0.00000,  0.00000,  0.00000,1,1,  10.00,   1,1.0000
10,11,'1 ',7.00000E-03, 6.00000E-02,  0.00000,'LINE10_11                               ',  250.00,  250.00,  250.00,    0.00,    0.00,    0.00,    0.00,    0.00,    0.00,    0.00,    0.00,    0.00,  0.00000,  0.00000,  0.00000,  0.00000,1,1,  10.00,   1,1.0000
11,12,'1 ',7.00000E-03, 6.00000E-02,  0.00000,'LINE11_12                               ',  250.00,  250.00,  250.00,    0.00,    0.00,    0.00,    0.00,    0.00,    0.00,    0.00,    0.00,    0.00,  0.00000,  0.00000,  0.00000,  0.00000,1,1,  10.00,   1,1.0000
12,13,'1 ',7.00000E-03, 6.00000E-02,  0.00000,'LINE12_13                               ',  250.00,  250.00,  250.00,    0.00,    0.00,    0.00,    0.00,    0.00,    0.00,    0.00,    0.00,    0.00,  0.00000,  0.00000,  0.00000,  0.00000,1,1,  10.00,   1,1.0000
13,14,'1 ',8.00000E-03, 7.00000E-02,  0.00000,'LINE13_14                               ',  220.00,  220.00,  220.00,    0.00,    0.00,    0.00,    0.00,    0.00,    0.00,    0.00,    0.00,    0.00,  0.00000,  0.00000,  0.00000,  0.00000,1,1,  10.00,   1,1.0000
14,15,'1 ',8.00000E-03, 7.00000E-02,  0.00000,'LINE14_15                               ',  220.00,  220.00,  220.00,    0.00,    0.00,    0.00,    0.00,    0.00,    0.00,    0.00,    0.00,    0.00,  0.00000,  0.00000,  0.00000,  0.00000,1,1,  10.00,   1,1.0000
15,16,'1 ',8.00000E-03, 7.00000E-02,  0.00000,'LINE15_16                               ',  220.00,  220.00,  220.00,    0.00,    0.00,    0.00,    0.00,    0.00,    0.00,    0.00,    0.00,    0.00,  0.00000,  0.00000,  0.00000,  0.00000,1,1,  10.00,   1,1.0000
16,17,'1 ',8.00000E-03, 7.00000E-02,  0.00000,'LINE16_17                               ',  220.00,  220.00,  220.00,    0.00,    0.00,    0.00,    0.00,    0.00,    0.00,    0.00,    0.00,    0.00,  0.00000,  0.00000,  0.00000,  0.00000,1,1,  10.00,   1,1.0000
17,18,'1 ',8.00000E-03, 7.00000E-02,  0.00000,'LINE17_18                               ',  220.00,  220.00,  220.00,    0.00,    0.00,    0.00,    0.00,    0.00,    0.00,    0.00,    0.00,    0.00,  0.00000,  0.00000,  0.00000,  0.00000,1,1,  10.00,   1,1.0000
18,19,'1 ',8.00000E-03, 7.00000E-02,  0.00000,'LINE18_19                               ',  220.00,  220.00,  220.00,    0.00,    0.00,    0.00,    0.00,    0.00,    0.00,    0.00,    0.00,    0.00,  0.00000,  0.00000,  0.00000,  0.00000,1,1,  10.00,   1,1.0000
19,20,'1 ',8.00000E-03, 7.00000E-02,  0.00000,'LINE19_20                               ',  220.00,  220.00,  220.00,    0.00,    0.00,    0.00,    0.00,    0.00,    0.00,    0.00,    0.00,    0.00,  0.00000,  0.00000,  0.00000,  0.00000,1,1,  10.00,   1,1.0000
5,8,'1 ', 6.00000E-03, 5.00000E-02,   0.00000,'LINE05_08                               ',  250.00,  250.00,  250.00,    0.00,    0.00,    0.00,    0.00,    0.00,    0.00,    0.00,    0.00,    0.00,  0.00000,  0.00000,  0.00000,  0.00000,1,1,  10.00,   1,1.0000
4,12,'1 ',6.00000E-03, 5.00000E-02,   0.00000,'LINE04_12                               ',  250.00,  250.00,  250.00,    0.00,    0.00,    0.00,    0.00,    0.00,    0.00,    0.00,    0.00,    0.00,  0.00000,  0.00000,  0.00000,  0.00000,1,1,  10.00,   1,1.0000
6,18,'1 ',6.00000E-03, 5.00000E-02,   0.00000,'LINE06_18                               ',  220.00,  220.00,  220.00,    0.00,    0.00,    0.00,    0.00,    0.00,    0.00,    0.00,    0.00,    0.00,  0.00000,  0.00000,  0.00000,  0.00000,1,1,  10.00,   1,1.0000
7,21,'1 ',8.00000E-03, 6.00000E-02,   0.00000,'XF_A_FEED                               ',  200.00,  200.00,  200.00,    0.00,    0.00,    0.00,    0.00,    0.00,    0.00,    0.00,    0.00,    0.00,  0.00000,  0.00000,  0.00000,  0.00000,1,1,  10.00,   1,1.0000
22,23,'1 ',1.00000E-02, 8.00000E-02,   0.00000,'XF_A_LOAD                               ',  150.00,  150.00,  150.00,    0.00,    0.00,    0.00,    0.00,    0.00,    0.00,    0.00,    0.00,    0.00,  0.00000,  0.00000,  0.00000,  0.00000,1,1,   5.00,   1,1.0000
13,24,'1 ',8.00000E-03, 6.00000E-02,   0.00000,'XF_B_FEED                               ',  200.00,  200.00,  200.00,    0.00,    0.00,    0.00,    0.00,    0.00,    0.00,    0.00,    0.00,    0.00,  0.00000,  0.00000,  0.00000,  0.00000,1,1,  10.00,   1,1.0000
25,26,'1 ',1.00000E-02, 8.00000E-02,   0.00000,'XF_B_LOAD                               ',  150.00,  150.00,  150.00,    0.00,    0.00,    0.00,    0.00,    0.00,    0.00,    0.00,    0.00,    0.00,  0.00000,  0.00000,  0.00000,  0.00000,1,1,   5.00,   1,1.0000
15,27,'1 ',1.00000E-02, 9.00000E-02,   0.00000,'PQBRAK_A_FEED                           ',  160.00,  160.00,  160.00,    0.00,    0.00,    0.00,    0.00,    0.00,    0.00,    0.00,    0.00,    0.00,  0.00000,  0.00000,  0.00000,  0.00000,1,1,  10.00,   1,1.0000
15,28,'1 ',1.00000E-02, 9.00000E-02,   0.00000,'PQBRAK_B_FEED                           ',  160.00,  160.00,  160.00,    0.00,    0.00,    0.00,    0.00,    0.00,    0.00,    0.00,    0.00,    0.00,  0.00000,  0.00000,  0.00000,  0.00000,1,1,  10.00,   1,1.0000
17,29,'1 ',8.00000E-03, 7.00000E-02,   0.00000,'SHUNT_C_FEED                            ',  180.00,  180.00,  180.00,    0.00,    0.00,    0.00,    0.00,    0.00,    0.00,    0.00,    0.00,    0.00,  0.00000,  0.00000,  0.00000,  0.00000,1,1,  10.00,   1,1.0000
18,30,'1 ',8.00000E-03, 7.00000E-02,   0.00000,'FACTS_B_FEED                            ',  180.00,  180.00,  180.00,    0.00,    0.00,    0.00,    0.00,    0.00,    0.00,    0.00,    0.00,    0.00,  0.00000,  0.00000,  0.00000,  0.00000,1,1,  10.00,   1,1.0000
11,31,'1 ',8.00000E-03, 5.50000E-02,   0.00000,'RECT_AC                                 ',  200.00,  200.00,  200.00,    0.00,    0.00,    0.00,    0.00,    0.00,    0.00,    0.00,    0.00,    0.00,  0.00000,  0.00000,  0.00000,  0.00000,1,1,  10.00,   1,1.0000
32,13,'1 ',8.00000E-03, 5.50000E-02,   0.00000,'INV_AC                                  ',  200.00,  200.00,  200.00,    0.00,    0.00,    0.00,    0.00,    0.00,    0.00,    0.00,    0.00,    0.00,  0.00000,  0.00000,  0.00000,  0.00000,1,1,  10.00,   1,1.0000
32,33,'1 ',8.00000E-03, 6.00000E-02,   0.00000,'DC_LOAD_FEED                            ',  160.00,  160.00,  160.00,    0.00,    0.00,    0.00,    0.00,    0.00,    0.00,    0.00,    0.00,    0.00,  0.00000,  0.00000,  0.00000,  0.00000,1,1,  10.00,   1,1.0000
20,34,'1 ',8.00000E-03, 7.00000E-02,   0.00000,'SWD_FEED                                ',  150.00,  150.00,  150.00,    0.00,    0.00,    0.00,    0.00,    0.00,    0.00,    0.00,    0.00,    0.00,  0.00000,  0.00000,  0.00000,  0.00000,1,1,  10.00,   1,1.0000
20,36,'1 ',8.00000E-03, 7.00000E-02,   0.00000,'REMOTE_FEED                             ',  180.00,  180.00,  180.00,    0.00,    0.00,    0.00,    0.00,    0.00,    0.00,    0.00,    0.00,    0.00,  0.00000,  0.00000,  0.00000,  0.00000,1,1,  10.00,   1,1.0000
36,37,'1 ',8.00000E-03, 7.00000E-02,   0.00000,'REMOTE_TIE                              ',  180.00,  180.00,  180.00,    0.00,    0.00,    0.00,    0.00,    0.00,    0.00,    0.00,    0.00,    0.00,  0.00000,  0.00000,  0.00000,  0.00000,1,1,  10.00,   1,1.0000
37,38,'1 ',9.00000E-03, 8.00000E-02,   0.00000,'END_LOAD_A                              ',  150.00,  150.00,  150.00,    0.00,    0.00,    0.00,    0.00,    0.00,    0.00,    0.00,    0.00,    0.00,  0.00000,  0.00000,  0.00000,  0.00000,1,1,  10.00,   1,1.0000
37,39,'1 ',9.00000E-03, 8.00000E-02,   0.00000,'END_LOAD_B                              ',  150.00,  150.00,  150.00,    0.00,    0.00,    0.00,    0.00,    0.00,    0.00,    0.00,    0.00,    0.00,  0.00000,  0.00000,  0.00000,  0.00000,1,1,  10.00,   1,1.0000
39,40,'1 ',6.00000E-03, 5.00000E-02,   0.00000,'END_GEN                                 ',  180.00,  180.00,  180.00,    0.00,    0.00,    0.00,    0.00,    0.00,    0.00,    0.00,    0.00,    0.00,  0.00000,  0.00000,  0.00000,  0.00000,1,1,  10.00,   1,1.0000
0 / END OF BRANCH DATA, BEGIN SYSTEM SWITCHING DEVICE DATA
@!   I,     J,'CKT',          X,   RATE1,   RATE2,   RATE3,   RATE4,   RATE5,   RATE6,   RATE7,   RATE8,   RATE9,  RATE10,  RATE11,  RATE12, STAT,NSTAT,  MET,STYPE,'NAME'
34,35,'@1', 1.00000E-4,  150.00,  150.00,  150.00,  150.00,  150.00,  150.00,  150.00,  150.00,  150.00,  150.00,  150.00,  150.00,    1,    1,    2,    2,'SWD40 CLOSED                            '
0 / END OF SYSTEM SWITCHING DEVICE DATA, BEGIN TRANSFORMER DATA
@!   I,     J,     K,'CKT',CW,CZ,CM,     MAG1,        MAG2,NMETR,               'N A M E',               STAT,O1,  F1,    O2,  F2,    O3,  F3,    O4,  F4,     'VECGRP', ZCOD
21,22,0,'1 ',1,1,1, 0.00010, 0.00100,1,'ULTC REM A                              ',1
0.01000, 0.10000, 100.00
1.10000, 0.000, 0.000, 150.00,150.00,150.00,0,0,0,0,0,0,0,0,0, 1, -23, 1.10000,0.90000,1.02000,0.98000,9,0,0.00000,0.00000,0.000,0
1.00000, 0.000
24,25,0,'1 ',1,1,1, 0.00010, 0.00100,1,'ULTC LOCAL B                            ',1
0.01000, 0.10000, 100.00
0.90000, 0.000, 0.000, 150.00,150.00,150.00,0,0,0,0,0,0,0,0,0, 1, 25, 1.10000,0.90000,1.01500,0.97500,9,0,0.00000,0.00000,0.000,0
1.00000, 0.000
0 / END OF TRANSFORMER DATA, BEGIN AREA DATA
@! I,   ISW,     PDES,      PTOL,    'ARNAME'
1,     1,      0.000,     10.000, 'AREA1'
0 / END OF AREA DATA, BEGIN TWO-TERMINAL DC DATA
@!  'NAME',   MDC,     RDC,      SETVL,     VSCHD,     VCMOD,     RCOMP,    DELTI,METER    DCVMIN,CCCITMX, CCCACC
@! IPR,NBR,ANMXR,ANMNR,   RCR,    XCR,  EBASR,  TRR,    TAPR,   TMXR,   TMNR,   STPR,    ICR,   IFR,   ITR,'IDR', XCAPR,NDR
@! IPI,NBI,ANMXI,ANMNI,   RCI,    XCI,  EBASI,  TRI,    TAPI,   TMXI,   TMNI,   STPI,    ICI,   IFI,   ITI,'IDI', XCAPI,NDI
"DC40       ",1,   10.0000,     40.00,    400.00,    390.00,   10.0000,   0.10000,'R',      0.00, 100,   1.00000
    31,  4,17.50,12.50, 0.0000, 5.0000, 230.0,1.00000,1.00000,1.25000,0.92500,0.01250,     0,     0,     0,'1 ', 0.0000,  0
    32,  4,17.00,17.00, 0.0000, 5.0000, 230.0,1.00000,1.00000,1.30500,0.96600,0.01250,     0,     0,     0,'1 ', 0.0000,  0
0 / END OF TWO-TERMINAL DC DATA, BEGIN VSC DC LINE DATA
@!  'NAME',   MDC,     RDC,   O1,  F1
0 / END OF VSC DC LINE DATA, BEGIN IMPEDANCE CORRECTION DATA
@!I,   T1,    Re(F1),  Im(F1)
0 / END OF IMPEDANCE CORRECTION DATA, BEGIN MULTI-TERMINAL DC DATA
@!  'NAME',    NCONV,NDCBS,NDCLN,  MDC, VCONV,     VCMOD, VCONVN
0 / END OF MULTI-TERMINAL DC DATA, BEGIN MULTI-SECTION LINE DATA
@!   I,     J,'ID',MET,DUM1,  DUM2
0 / END OF MULTI-SECTION LINE DATA, BEGIN ZONE DATA
@! I,   'ZONAME'
1, 'ZONE1'
0 / END OF ZONE DATA, BEGIN INTER-AREA TRANSFER DATA
@!ARFROM,ARTO,'TRID', PTRAN
0 / END OF INTER-AREA TRANSFER DATA, BEGIN OWNER DATA
@! I,   'OWNAME'
1, 'OWNER1'
0 / END OF OWNER DATA, BEGIN FACTS DEVICE DATA
@!  'NAME',         I,     J,MODE,   PDES,      QDES,  VSET,      SHMX,      TRMX,   VTMN,   VTMX,   VSMX,      IMX,     LINX,   RMPCT,OWNER,    SET1,      SET2,VSREF, FCREG,   'MNAME'    ,NREG
"STATCON A  ",    17,     0,   1,   0.000,     0.000,1.01500,   120.000,     0.000,0.90000,1.10000,1.00000,     0.000, 0.05000,  100.0,   1,   0.00000,   0.00000,   0,    13,"            ",   0
"STATCON B  ",    30,     0,   1,   0.000,     0.000,1.01000,    90.000,     0.000,0.90000,1.10000,1.00000,     0.000, 0.05000,  100.0,   1,   0.00000,   0.00000,   0,    36,"            ",   0
0 / END OF FACTS DEVICE DATA, BEGIN SWITCHED SHUNT DATA
@!  I,MODSW,ADJM,ST, VSWHI,  VSWLO, SWREG,  RMPCT,   'RMIDNT',      BINIT,N1,     B1, N2,     B2, NREG
14, 1,  0,  1,1.02500,0.99500,    16,  100.0,'            ',    0.00, 6,    5.00, 0,    0.00, 0
15, 1,  0,  1,1.02500,0.99500,    16,  100.0,'            ',    0.00, 6,    5.00, 0,    0.00, 0
29, 2,  0,  1,1.01000,1.01000,    37,  100.0,'            ',    0.00, 1,  -20.00, 1,   80.00, 0
0 / END OF SWITCHED SHUNT DATA, BEGIN GNE DATA
@!  'NAME',        'MODEL',     NTERM,BUS1...BUSNTERM,NREAL,NINTG,NCHAR
0 / END OF GNE DATA, BEGIN INDUCTION MACHINE DATA
@!   I,'ID',ST,SC,DC,AREA,ZONE,OWNER,TC,BC,  MBASE, RATEKV,PC
0 / END OF INDUCTION MACHINE DATA, BEGIN SUBSTATION DATA
0 / END OF SUBSTATION DATA
